/*--------------------------------*- C++ -*----------------------------------*\
| =========                 |                                                 |
| \\      /  F ield         | OpenFOAM: The Open Source CFD Toolbox           |
|  \\    /   O peration     | Version:  v2306                                 |
|   \\  /    A nd           | Website:  www.openfoam.com                      |
|    \\/     M anipulation  |                                                 |
\*---------------------------------------------------------------------------*/
FoamFile
{
    version     2.0;
    format      ascii;
    class       dictionary;
    object      controlDict;
}
// * * * * * * * * * * * * * * * * * * * * * * * * * * * * * * * * * * * * * //

application     scalarAdvection;

executor        Serial;

startFrom       startTime;

startTime       0;

stopAt          endTime;

endTime         3.0;

deltaT          0.0001;

writeControl    adjustable;

writeInterval   5.0;

purgeWrite      0;

writeFormat     ascii;

writePrecision  8;

writeCompression off;

timeFormat      general;

timePrecision   8;

runTimeModifiable true;

adjustTimeStep  no;

maxCo           0.1;

maxDeltaT       0.0001;

setFields       1;

profiling
{
    active      true;
    cpuInfo     true;
    memInfo     true;
    sysInfo     true;
}
// ************************************************************************* //
