/*--------------------------------*- C++ -*----------------------------------*\
| =========                 |                                                 |
| \\      /  F ield         | OpenFOAM: The Open Source CFD Toolbox           |
|  \\    /   O peration     | Version:  2406                                  |
|   \\  /    A nd           | Website:  www.openfoam.com                      |
|    \\/     M anipulation  |                                                 |
\*---------------------------------------------------------------------------*/
FoamFile
{
    version     2.0;
    format      ascii;
    arch        "LSB;label=32;scalar=64";
    class       volScalarField;
    location    "0";
    object      T;
}
// * * * * * * * * * * * * * * * * * * * * * * * * * * * * * * * * * * * * * //

dimensions      [0 0 0 1 0 0 0];

internalField   uniform 0;

boundaryField
{
    fixedWalls
    {
        type            zeroGradient;
        // type            fixedValue;
        // value           uniform 0.1;
    }

    inlet
    {
        // type            zeroGradient;
        type            fixedValue;
        value           uniform 0.01;
    }

    outlet
    {
        // type            zeroGradient;
        type            fixedValue;
        value           uniform 0.1;
    }

}


// ************************************************************************* //
