/*--------------------------------*- C++ -*----------------------------------*\
| =========                 |                                                 |
| \\      /  F ield         | OpenFOAM: The Open Source CFD Toolbox           |
|  \\    /   O peration     | Version:  v2306                                 |
|   \\  /    A nd           | Website:  www.openfoam.com                      |
|    \\/     M anipulation  |                                                 |
\*---------------------------------------------------------------------------*/
FoamFile
{
    version     2.0;
    format      ascii;
    class       dictionary;
    object      fvSchemes;
}
// * * * * * * * * * * * * * * * * * * * * * * * * * * * * * * * * * * * * * //
#include "simulationParameters"

ddtSchemes
{
    default         none;
    ddt(ofU)          Euler;
    ddt(rho,U)      Euler;
    ddt(rho,T)      Euler;
}

gradSchemes
{
    default         none;
    grad(T)         $GRADSCHEME;
    grad(U)         $GRADSCHEME;
    limited         cellLimited Gauss linear 1;
}

divSchemes
{
    default         none;
    div(ofPhi,ofU)      $DIVSCHEME;
    div(nfPhi,nfU)      $DIVSCHEME;
}

laplacianSchemes
{
    default         none;
    laplacian(ofNu,ofU) $LAPSCHEME;
    laplacian(nfNu,nfU) $LAPSCHEME;
}

interpolationSchemes
{
    default         none;
    flux(ofU)         linear;
    // default         linear;
}

snGradSchemes
{
    default         none;
    // default         corrected;
}


// ************************************************************************* //
