/*--------------------------------*- C++ -*----------------------------------*\
| =========                 |                                                 |
| \\      /  F ield         | OpenFOAM: The Open Source CFD Toolbox           |
|  \\    /   O peration     | Version:  v2306                                 |
|   \\  /    A nd           | Website:  www.openfoam.com                      |
|    \\/     M anipulation  |                                                 |
\*---------------------------------------------------------------------------*/
FoamFile
{
    version     2.0;
    format      ascii;
    class       dictionary;
    object      fvSolution;
}
// * * * * * * * * * * * * * * * * * * * * * * * * * * * * * * * * * * * * * //

solvers
{
    ofp
    {
        solver          PCG;
        preconditioner  DIC;
        tolerance       1e-06;
        relTol          0.0;
    }

    ofU
    {
        solver          PBiCGStab;
        preconditioner  diagonal;
        tolerance       1e-16;
        relTol          0;
    }

    nfU
    {
        solver          PBiCGStab;
        preconditioner  DIC;
        tolerance       1e-16;
        relTol          0.0;
    }

    nfU
    {
        // solver          PCG;
        // preconditioner  DIC;
        // tolerance       1e-06;
        // relTol          0;
    }

    nfP
    {
        // solver          PCG;
        // preconditioner  DIC;
        // tolerance       1e-06;
        // relTol          0;
    }
}



// ************************************************************************* //
