/*--------------------------------*- C++ -*----------------------------------*\
| =========                 |                                                 |
| \\      /  F ield         | OpenFOAM: The Open Source CFD Toolbox           |
|  \\    /   O peration     | Version:  v2306                                 |
|   \\  /    A nd           | Website:  www.openfoam.com                      |
|    \\/     M anipulation  |                                                 |
\*---------------------------------------------------------------------------*/
FoamFile
{
    version     2.0;
    format      ascii;
    class       dictionary;
    object      testDictionary;
}
// * * * * * * * * * * * * * * * * * * * * * * * * * * * * * * * * * * * * * //


label                       1;
scalar                      2.1;
scalar2                     2.0;
scalarWriteAnsInt           2;
vector                      (1.0 2.0 3.0);
word word;

subDict
{
    subScalar                4.1;
    subVector                (5.0 6.0 7.0);
    subWord                  subWord;
}


// ************************************************************************* //
