/*--------------------------------*- C++ -*----------------------------------*\
| =========                 |                                                 |
| \\      /  F ield         | OpenFOAM: The Open Source CFD Toolbox           |
|  \\    /   O peration     | Version:  v2406                                 |
|   \\  /    A nd           | Website:  www.openfoam.com                      |
|    \\/     M anipulation  |                                                 |
\*---------------------------------------------------------------------------*/
FoamFile
{
    version     2.0;
    format      ascii;
    class       dictionary;
    object      fvSolution;
}
// * * * * * * * * * * * * * * * * * * * * * * * * * * * * * * * * * * * * * //

solvers
{
    p
    {
        solver          PCG;
        preconditioner  DIC;
        tolerance       1e-20;
        relTol          0.00;
        maxIter         200;
    }

    pFinal
    {
        $p;
        relTol          0;
    }

    nfP
    {
        solver          Ginkgo;
        type            "solver::Cg";
        preconditioner
        {
            type            "preconditioner::Jacobi";
            max_block_size  8;
        }
        criteria
        {
            iteration 50;
            relative_residual_norm 1e-20;
            absolute_residual_norm 1e-20;
        }
    }

    U
    {
        solver          smoothSolver;
        smoother        symGaussSeidel;
        tolerance       1e-05;
        relTol          0;
    }

    UFinal
    {
        solver          smoothSolver;
        smoother        symGaussSeidel;
        tolerance       1e-05;
        relTol          0;
    }

    nfU
    {
        maxIters        5;
        relTol          1e-06;
    }
}

PISO
{
    momentumPredictor   no;
    nCorrectors     4;
    nNonOrthogonalCorrectors 0;
    pRefCell        0;
    pRefValue       0;
}


// ************************************************************************* //
